  0
SECTION
  2
ENTITIES
999
DXF created from EnergyPlus
999
Program Version,EnergyPlus, Version 8.6.0-198c6a3cff, YMD=2017.05.02 12:17
999
Polygon Action,TRIANGULATE3DFACE
999
Color Scheme,Default
999
Text - True North
  0
TEXT
  8
1
  6
Continuous
 62
  3
 10
      -11.95051
 20
        2.09399
 30
        0.10000
 40
 .25
  1
True North
 41
 0.0
  7
MONOTXT
210
0.0
220
0.0
230
1.0
999
Text - Building Title
  0
TEXT
  8
1
  6
Continuous
 62
  3
 10
      -14.95051
 20
       -1.90601
 30
        0.10000
 40
 .4
  1
Building - Building
 41
 0.0
  7
MONOTXT
210
0.0
220
0.0
230
1.0
999
North Arrow Stem
  0
3DFACE
  8
1
 62
  3
 10
      -10.95051
 20
        2.09399
 30
        0.10000
 11
      -10.95051
 21
        2.09399
 31
        0.00000
 12
      -10.95051
 22
       -0.90601
 32
        0.00000
 13
      -10.95051
 23
       -0.90601
 33
        0.10000
999
North Arrow Head 1
  0
3DFACE
  8
1
 62
  3
 10
      -10.95051
 20
        2.09399
 30
        0.10000
 11
      -10.95051
 21
        2.09399
 31
        0.00000
 12
      -11.45051
 22
        1.22796
 32
        0.00000
 13
      -11.45051
 23
        1.22796
 33
        0.10000
999
North Arrow Head 2
  0
3DFACE
  8
1
 62
  3
 10
      -10.95051
 20
        2.09399
 30
        0.10000
 11
      -10.95051
 21
        2.09399
 31
        0.00000
 12
      -10.45051
 22
        1.22796
 32
        0.00000
 13
      -10.45051
 23
        1.22796
 33
        0.10000
999
North Arrow Side 1
  0
3DFACE
  8
1
 62
  3
 10
      -11.45051
 20
        3.59399
 30
        0.10000
 11
      -11.45051
 21
        3.59399
 31
        0.00000
 12
      -11.45051
 22
        2.59399
 32
        0.00000
 13
      -11.45051
 23
        2.59399
 33
        0.10000
999
North Arrow Side 2
  0
3DFACE
  8
1
 62
  3
 10
      -11.45051
 20
        3.59399
 30
        0.10000
 11
      -11.45051
 21
        3.59399
 31
        0.00000
 12
      -10.45051
 22
        2.59399
 32
        0.00000
 13
      -10.45051
 23
        2.59399
 33
        0.10000
999
North Arrow Side 3
  0
3DFACE
  8
1
 62
  3
 10
      -10.45051
 20
        3.59399
 30
        0.10000
 11
      -10.45051
 21
        3.59399
 31
        0.00000
 12
      -10.45051
 22
        2.59399
 32
        0.00000
 13
      -10.45051
 23
        2.59399
 33
        0.10000
999
Zone Names
999
Zone=1:ZONE_1
999
Zone=2:ZONE_2
999
Zone=3:ZONE_3
999
Zone=4:ZONE_4
999
Zone=5:ZONE_CORE
999
ZONE_1:S_WALL
  0
3DFACE
  8
ZONE_1
 62
 43
 10
       -0.00000
 20
        0.00000
 30
        3.00000
 11
        0.00000
 21
        0.00000
 31
        0.00000
 12
       44.72136
 22
        0.00000
 32
        0.00000
 13
       44.72136
 23
        0.00000
 33
        3.00000
999
ZONE_1:SOUTH_WINDOW
  0
3DFACE
  8
ZONE_1
 62
143
 10
        1.00000
 20
        0.00000
 30
        2.28511
 11
        1.00000
 21
        0.00000
 31
        0.71489
 12
       43.72136
 22
        0.00000
 32
        0.71489
 13
       43.72136
 23
        0.00000
 33
        2.28511
999
ZONE_1:ZONE_1_N
  0
3DFACE
  8
ZONE_1
 62
 43
 10
        3.00000
 20
        3.00000
 30
        3.00000
 11
        3.00000
 21
        3.00000
 31
        0.00000
 12
       41.72136
 22
        3.00000
 32
        0.00000
 13
       41.72136
 23
        3.00000
 33
        3.00000
999
ZONE_1:ZONE_1_W
  0
3DFACE
  8
ZONE_1
 62
 43
 10
       -0.00000
 20
        0.00000
 30
        3.00000
 11
        0.00000
 21
        0.00000
 31
        0.00000
 12
        2.99955
 22
        2.99955
 32
        0.00000
 13
        2.99955
 23
        2.99955
 33
        3.00000
999
ZONE_1:ZONE_1_E
  0
3DFACE
  8
ZONE_1
 62
 43
 10
       44.72136
 20
       -0.00000
 30
        3.00000
 11
       44.72136
 21
        0.00000
 31
        0.00000
 12
       41.72181
 22
        2.99955
 32
        0.00000
 13
       41.72181
 23
        2.99955
 33
        3.00000
999
ZONE_1:iz-ZONE_2_S
  0
3DFACE
  8
ZONE_1
 62
 43
 10
       44.72091
 20
        0.00045
 30
        3.00000
 11
       44.72091
 21
        0.00045
 31
        0.00000
 12
       41.72136
 22
        3.00000
 32
        0.00000
 13
       41.72136
 23
        3.00000
 33
        3.00000
999
ZONE_1:iz-ZONE_4_S
  0
3DFACE
  8
ZONE_1
 62
 43
 10
        2.99955
 20
        2.99955
 30
        3.00000
 11
        2.99955
 21
        2.99955
 31
        0.00000
 12
        0.00000
 22
        0.00000
 32
        0.00000
 13
       -0.00000
 23
        0.00000
 33
        3.00000
999
ZONE_1:ZONE_1_FLOOR
  0
3DFACE
  8
ZONE_1
 62
  8
 10
       44.72136
 20
        0.00000
 30
        0.00000
 11
        0.00000
 21
        0.00000
 31
        0.00000
 12
        3.00000
 22
        3.00000
 32
        0.00000
 13
       41.72136
 23
        3.00000
 33
        0.00000
999
ZONE_1:ZONE_1_ROOF
  0
3DFACE
  8
ZONE_1
 62
 15
 10
        3.00000
 20
        3.00000
 30
        3.00000
 11
        0.00000
 21
        0.00000
 31
        3.00000
 12
       44.72136
 22
        0.00000
 32
        3.00000
 13
       41.72136
 23
        3.00000
 33
        3.00000
999
ZONE_1:TEST_OVERHANG_S
  0
3DFACE
  8
ZONE_1
 62
 13
 10
        1.00000
 20
       -0.90601
 30
        2.28511
 11
        1.00000
 21
        0.00000
 31
        2.28511
 12
       43.72136
 22
        0.00000
 32
        2.28511
 13
       43.72136
 23
       -0.90601
 33
        2.28511
999
ZONE_1:Mir-TEST_OVERHANG_S
  0
3DFACE
  8
ZONE_1
 62
 13
 10
       43.72136
 20
       -0.90601
 30
        2.28511
 11
       43.72136
 21
        0.00000
 31
        2.28511
 12
        1.00000
 22
        0.00000
 32
        2.28511
 13
        1.00000
 23
       -0.90601
 33
        2.28511
999
ZONE_2:E_WALL
  0
3DFACE
  8
ZONE_2
 62
 43
 10
       44.72136
 20
       -0.00000
 30
        3.00000
 11
       44.72136
 21
        0.00000
 31
        0.00000
 12
       44.72136
 22
       22.36068
 32
        0.00000
 13
       44.72136
 23
       22.36068
 33
        3.00000
999
ZONE_2:EAST_WINDOW
  0
3DFACE
  8
ZONE_2
 62
143
 10
       44.72136
 20
        1.00000
 30
        2.32367
 11
       44.72136
 21
        1.00000
 31
        0.67633
 12
       44.72136
 22
       21.36068
 32
        0.67633
 13
       44.72136
 23
       21.36068
 33
        2.32367
999
ZONE_2:ZONE_2_S
  0
3DFACE
  8
ZONE_2
 62
 43
 10
       41.72136
 20
        3.00000
 30
        3.00000
 11
       41.72136
 21
        3.00000
 31
        0.00000
 12
       44.72091
 22
        0.00045
 32
        0.00000
 13
       44.72091
 23
        0.00045
 33
        3.00000
999
ZONE_2:ZONE_2_W
  0
3DFACE
  8
ZONE_2
 62
 43
 10
       41.72136
 20
        3.00000
 30
        3.00000
 11
       41.72136
 21
        3.00000
 31
        0.00000
 12
       41.72136
 22
       19.36068
 32
        0.00000
 13
       41.72136
 23
       19.36068
 33
        3.00000
999
ZONE_2:ZONE_2_N
  0
3DFACE
  8
ZONE_2
 62
 43
 10
       41.72136
 20
       19.36068
 30
        3.00000
 11
       41.72136
 21
       19.36068
 31
        0.00000
 12
       44.72091
 22
       22.36023
 32
        0.00000
 13
       44.72091
 23
       22.36023
 33
        3.00000
999
ZONE_2:iz-ZONE_3_E
  0
3DFACE
  8
ZONE_2
 62
 43
 10
       44.72091
 20
       22.36023
 30
        3.00000
 11
       44.72091
 21
       22.36023
 31
        0.00000
 12
       41.72136
 22
       19.36068
 32
        0.00000
 13
       41.72136
 23
       19.36068
 33
        3.00000
999
ZONE_2:iz-ZONE_1_E
  0
3DFACE
  8
ZONE_2
 62
 43
 10
       41.72181
 20
        2.99955
 30
        3.00000
 11
       41.72181
 21
        2.99955
 31
        0.00000
 12
       44.72136
 22
        0.00000
 32
        0.00000
 13
       44.72136
 23
       -0.00000
 33
        3.00000
999
ZONE_2:ZONE_2_FLOOR
  0
3DFACE
  8
ZONE_2
 62
  8
 10
       44.72136
 20
        0.00000
 30
        0.00000
 11
       41.72136
 21
        3.00000
 31
        0.00000
 12
       41.72136
 22
       19.36068
 32
        0.00000
 13
       44.72136
 23
       22.36068
 33
        0.00000
999
ZONE_2:ZONE_2_ROOF
  0
3DFACE
  8
ZONE_2
 62
 15
 10
       41.72136
 20
       19.36068
 30
        3.00000
 11
       41.72136
 21
        3.00000
 31
        3.00000
 12
       44.72136
 22
        0.00000
 32
        3.00000
 13
       44.72136
 23
       22.36068
 33
        3.00000
999
ZONE_2:TEST_OVERHANG_E
  0
3DFACE
  8
ZONE_2
 62
 13
 10
       45.67187
 20
        1.00000
 30
        2.32367
 11
       44.72136
 21
        1.00000
 31
        2.32367
 12
       44.72136
 22
       21.36068
 32
        2.32367
 13
       45.67187
 23
       21.36068
 33
        2.32367
999
ZONE_2:Mir-TEST_OVERHANG_E
  0
3DFACE
  8
ZONE_2
 62
 13
 10
       45.67187
 20
       21.36068
 30
        2.32367
 11
       44.72136
 21
       21.36068
 31
        2.32367
 12
       44.72136
 22
        1.00000
 32
        2.32367
 13
       45.67187
 23
        1.00000
 33
        2.32367
999
ZONE_3:N_WALL
  0
3DFACE
  8
ZONE_3
 62
 43
 10
       44.72136
 20
       22.36068
 30
        3.00000
 11
       44.72136
 21
       22.36068
 31
        0.00000
 12
        0.00000
 22
       22.36068
 32
        0.00000
 13
        0.00000
 23
       22.36068
 33
        3.00000
999
ZONE_3:NORTH_WINDOW
  0
3DFACE
  8
ZONE_3
 62
143
 10
       43.72136
 20
       22.36068
 30
        2.28511
 11
       43.72136
 21
       22.36068
 31
        0.71489
 12
        1.00000
 22
       22.36068
 32
        0.71489
 13
        1.00000
 23
       22.36068
 33
        2.28511
999
ZONE_3:ZONE_3_S
  0
3DFACE
  8
ZONE_3
 62
 43
 10
        3.00000
 20
       19.36068
 30
        3.00000
 11
        3.00000
 21
       19.36068
 31
        0.00000
 12
       41.72136
 22
       19.36068
 32
        0.00000
 13
       41.72136
 23
       19.36068
 33
        3.00000
999
ZONE_3:ZONE_3_E
  0
3DFACE
  8
ZONE_3
 62
 43
 10
       41.72136
 20
       19.36068
 30
        3.00000
 11
       41.72136
 21
       19.36068
 31
        0.00000
 12
       44.72091
 22
       22.36023
 32
        0.00000
 13
       44.72091
 23
       22.36023
 33
        3.00000
999
ZONE_3:ZONE_3_W
  0
3DFACE
  8
ZONE_3
 62
 43
 10
        3.00000
 20
       19.36068
 30
        3.00000
 11
        3.00000
 21
       19.36068
 31
        0.00000
 12
        0.00045
 22
       22.36023
 32
        0.00000
 13
        0.00045
 23
       22.36023
 33
        3.00000
999
ZONE_3:iz-ZONE_2_N
  0
3DFACE
  8
ZONE_3
 62
 43
 10
       44.72091
 20
       22.36023
 30
        3.00000
 11
       44.72091
 21
       22.36023
 31
        0.00000
 12
       41.72136
 22
       19.36068
 32
        0.00000
 13
       41.72136
 23
       19.36068
 33
        3.00000
999
ZONE_3:iz-ZONE_4_N
  0
3DFACE
  8
ZONE_3
 62
 43
 10
        0.00045
 20
       22.36023
 30
        3.00000
 11
        0.00045
 21
       22.36023
 31
        0.00000
 12
        3.00000
 22
       19.36068
 32
        0.00000
 13
        3.00000
 23
       19.36068
 33
        3.00000
999
ZONE_3:ZONE_3_FLOOR
  0
3DFACE
  8
ZONE_3
 62
  8
 10
       41.72136
 20
       19.36068
 30
        0.00000
 11
        3.00000
 21
       19.36068
 31
        0.00000
 12
        0.00000
 22
       22.36068
 32
        0.00000
 13
       44.72136
 23
       22.36068
 33
        0.00000
999
ZONE_3:ZONE_3_ROOF
  0
3DFACE
  8
ZONE_3
 62
 15
 10
        0.00000
 20
       22.36068
 30
        3.00000
 11
        3.00000
 21
       19.36068
 31
        3.00000
 12
       41.72136
 22
       19.36068
 32
        3.00000
 13
       44.72136
 23
       22.36068
 33
        3.00000
999
ZONE_3:TEST_OVERHANG_N
  0
3DFACE
  8
ZONE_3
 62
 13
 10
       43.72136
 20
       23.26669
 30
        2.28511
 11
       43.72136
 21
       22.36068
 31
        2.28511
 12
        1.00000
 22
       22.36068
 32
        2.28511
 13
        1.00000
 23
       23.26669
 33
        2.28511
999
ZONE_3:Mir-TEST_OVERHANG_N
  0
3DFACE
  8
ZONE_3
 62
 13
 10
        1.00000
 20
       23.26669
 30
        2.28511
 11
        1.00000
 21
       22.36068
 31
        2.28511
 12
       43.72136
 22
       22.36068
 32
        2.28511
 13
       43.72136
 23
       23.26669
 33
        2.28511
999
ZONE_4:W_WALL
  0
3DFACE
  8
ZONE_4
 62
 43
 10
        0.00000
 20
       22.36068
 30
        3.00000
 11
        0.00000
 21
       22.36068
 31
        0.00000
 12
        0.00000
 22
        0.00000
 32
        0.00000
 13
        0.00000
 23
        0.00000
 33
        3.00000
999
ZONE_4:WEST_WINDOW
  0
3DFACE
  8
ZONE_4
 62
143
 10
        0.00000
 20
       21.36068
 30
        2.32367
 11
        0.00000
 21
       21.36068
 31
        0.67633
 12
        0.00000
 22
        1.00000
 32
        0.67633
 13
        0.00000
 23
        1.00000
 33
        2.32367
999
ZONE_4:ZONE_4_S
  0
3DFACE
  8
ZONE_4
 62
 43
 10
       -0.00000
 20
        0.00000
 30
        3.00000
 11
        0.00000
 21
        0.00000
 31
        0.00000
 12
        2.99955
 22
        2.99955
 32
        0.00000
 13
        2.99955
 23
        2.99955
 33
        3.00000
999
ZONE_4:ZONE_4_N
  0
3DFACE
  8
ZONE_4
 62
 43
 10
        3.00000
 20
       19.36068
 30
        3.00000
 11
        3.00000
 21
       19.36068
 31
        0.00000
 12
        0.00045
 22
       22.36023
 32
        0.00000
 13
        0.00045
 23
       22.36023
 33
        3.00000
999
ZONE_4:ZONE_4_E
  0
3DFACE
  8
ZONE_4
 62
 43
 10
        3.00000
 20
        3.00000
 30
        3.00000
 11
        3.00000
 21
        3.00000
 31
        0.00000
 12
        3.00000
 22
       19.36068
 32
        0.00000
 13
        3.00000
 23
       19.36068
 33
        3.00000
999
ZONE_4:iz-ZONE_3_W
  0
3DFACE
  8
ZONE_4
 62
 43
 10
        0.00045
 20
       22.36023
 30
        3.00000
 11
        0.00045
 21
       22.36023
 31
        0.00000
 12
        3.00000
 22
       19.36068
 32
        0.00000
 13
        3.00000
 23
       19.36068
 33
        3.00000
999
ZONE_4:iz-ZONE_1_W
  0
3DFACE
  8
ZONE_4
 62
 43
 10
        2.99955
 20
        2.99955
 30
        3.00000
 11
        2.99955
 21
        2.99955
 31
        0.00000
 12
        0.00000
 22
        0.00000
 32
        0.00000
 13
       -0.00000
 23
        0.00000
 33
        3.00000
999
ZONE_4:ZONE_4_FLOOR
  0
3DFACE
  8
ZONE_4
 62
  8
 10
        3.00000
 20
        3.00000
 30
        0.00000
 11
        0.00000
 21
        0.00000
 31
        0.00000
 12
        0.00000
 22
       22.36068
 32
        0.00000
 13
        3.00000
 23
       19.36068
 33
        0.00000
999
ZONE_4:ZONE_4_ROOF
  0
3DFACE
  8
ZONE_4
 62
 15
 10
        0.00000
 20
       22.36068
 30
        3.00000
 11
        0.00000
 21
        0.00000
 31
        3.00000
 12
        3.00000
 22
        3.00000
 32
        3.00000
 13
        3.00000
 23
       19.36068
 33
        3.00000
999
ZONE_4:TEST_OVERHANG_W
  0
3DFACE
  8
ZONE_4
 62
 13
 10
       -0.95051
 20
       21.36068
 30
        2.32367
 11
        0.00000
 21
       21.36068
 31
        2.32367
 12
        0.00000
 22
        1.00000
 32
        2.32367
 13
       -0.95051
 23
        1.00000
 33
        2.32367
999
ZONE_4:Mir-TEST_OVERHANG_W
  0
3DFACE
  8
ZONE_4
 62
 13
 10
       -0.95051
 20
        1.00000
 30
        2.32367
 11
        0.00000
 21
        1.00000
 31
        2.32367
 12
        0.00000
 22
       21.36068
 32
        2.32367
 13
       -0.95051
 23
       21.36068
 33
        2.32367
999
ZONE_CORE:iz-ZONE_3_S
  0
3DFACE
  8
ZONE_CORE
 62
 43
 10
       41.72136
 20
       19.36068
 30
        3.00000
 11
       41.72136
 21
       19.36068
 31
        0.00000
 12
        3.00000
 22
       19.36068
 32
        0.00000
 13
        3.00000
 23
       19.36068
 33
        3.00000
999
ZONE_CORE:iz-ZONE_1_N
  0
3DFACE
  8
ZONE_CORE
 62
 43
 10
       41.72136
 20
        3.00000
 30
        3.00000
 11
       41.72136
 21
        3.00000
 31
        0.00000
 12
        3.00000
 22
        3.00000
 32
        0.00000
 13
        3.00000
 23
        3.00000
 33
        3.00000
999
ZONE_CORE:iz-ZONE_2_W
  0
3DFACE
  8
ZONE_CORE
 62
 43
 10
       41.72136
 20
       19.36068
 30
        3.00000
 11
       41.72136
 21
       19.36068
 31
        0.00000
 12
       41.72136
 22
        3.00000
 32
        0.00000
 13
       41.72136
 23
        3.00000
 33
        3.00000
999
ZONE_CORE:iz-ZONE_4_E
  0
3DFACE
  8
ZONE_CORE
 62
 43
 10
        3.00000
 20
       19.36068
 30
        3.00000
 11
        3.00000
 21
       19.36068
 31
        0.00000
 12
        3.00000
 22
        3.00000
 32
        0.00000
 13
        3.00000
 23
        3.00000
 33
        3.00000
999
ZONE_CORE:CORE_FLOOR
  0
3DFACE
  8
ZONE_CORE
 62
  8
 10
       41.72136
 20
       19.36068
 30
        0.00000
 11
       41.72136
 21
        3.00000
 31
        0.00000
 12
        3.00000
 22
        3.00000
 32
        0.00000
 13
        3.00000
 23
       19.36068
 33
        0.00000
999
ZONE_CORE:CORE_ROOF
  0
3DFACE
  8
ZONE_CORE
 62
 15
 10
       41.72136
 20
       19.36068
 30
        3.00000
 11
       41.72136
 21
        3.00000
 31
        3.00000
 12
        3.00000
 22
        3.00000
 32
        3.00000
 13
        3.00000
 23
       19.36068
 33
        3.00000
  0
ENDSEC
  0
EOF
